Version 4
SHEET 1 900 680
WIRE 576 16 544 16
WIRE 896 16 656 16
WIRE -208 32 -400 32
WIRE 96 48 -144 48
WIRE 224 48 96 48
WIRE -208 64 -304 64
WIRE 96 96 96 48
WIRE 224 160 224 48
WIRE 272 160 224 160
WIRE 544 160 544 16
WIRE 544 160 352 160
WIRE 544 176 544 160
WIRE 608 176 544 176
WIRE -304 192 -304 64
WIRE 96 192 96 176
WIRE 96 192 -304 192
WIRE 896 192 896 16
WIRE 896 192 672 192
WIRE 96 208 96 192
WIRE 608 208 544 208
WIRE 16 256 -304 256
WIRE 272 272 224 272
WIRE 464 272 352 272
WIRE 544 272 544 208
WIRE 544 272 464 272
WIRE -304 304 -304 256
WIRE -208 304 -304 304
WIRE -32 320 -144 320
WIRE 16 320 16 256
WIRE 96 320 96 288
WIRE 96 320 16 320
WIRE -208 336 -400 336
WIRE 464 336 464 272
WIRE 96 352 96 320
WIRE -32 464 -32 320
WIRE 96 464 96 432
WIRE 96 464 -32 464
WIRE 224 464 224 272
WIRE 224 464 96 464
WIRE 464 464 464 416
FLAG 464 464 0
SYMBOL OpAmps\\AD744 -176 112 M180
SYMATTR InstName U1
SYMBOL OpAmps\\AD744 -176 256 R0
SYMATTR InstName U2
SYMBOL OpAmps\\AD744 640 128 R0
SYMATTR InstName U3
SYMBOL res 80 80 R0
SYMATTR InstName R1
SYMBOL res 80 192 R0
SYMATTR InstName Rg
SYMBOL res 448 320 R0
SYMATTR InstName R3
SYMBOL res 368 144 R90
WINDOW 0 0 56 VBottom 2
WINDOW 3 32 56 VTop 2
SYMATTR InstName R4
SYMATTR Value R2
SYMBOL res 672 0 R90
WINDOW 0 0 56 VBottom 2
WINDOW 3 32 56 VTop 2
SYMATTR InstName R3
SYMBOL res 368 256 R90
WINDOW 0 0 56 VBottom 2
WINDOW 3 32 56 VTop 2
SYMATTR InstName R2
SYMBOL res 80 336 R0
SYMATTR InstName R1
